128
out.xyz
C 4.649 2.930 9.226
C 3.808 2.471 8.097
C 4.699 2.158 10.491
C 6.178 3.017 8.766
C 6.571 3.934 7.748
C 8.033 3.779 7.403
C 8.783 4.927 7.900
C 8.683 2.524 7.989
C 9.289 1.700 6.987
C 9.738 3.044 8.964
C 10.953 2.331 8.907
C 9.962 4.499 8.556
C 10.288 5.420 9.764
C 11.637 5.612 9.996
C 12.506 5.142 9.282
C 11.935 6.378 11.096
C 11.040 6.957 11.972
C 11.461 7.619 12.917
C 9.659 6.711 11.666
C 9.341 5.970 10.600
C 9.095 0.286 7.120
C 8.164 -0.811 7.482
C 10.149 0.697 8.081
C 9.774 -0.075 5.730
C 10.542 0.898 5.003
C 10.536 0.544 3.542
C 11.388 1.436 2.780
C 11.019 -0.860 3.239
C 10.267 -1.236 2.108
C 12.462 -0.649 2.807
C 12.903 -1.651 1.919
C 12.347 0.681 2.069
C 12.852 1.811 1.617
C 13.887 1.289 2.355
C 15.002 1.196 1.685
C 14.691 1.686 0.430
C 15.495 1.833 -0.729
C 16.691 1.547 -0.874
C 14.779 2.372 -1.794
C 13.452 2.725 -1.748
C 12.935 3.231 -2.877
C 12.692 2.594 -0.679
C 13.366 2.071 0.367
C 9.421 -2.697 2.252
C 8.498 -3.542 3.048
C 10.872 -3.010 2.241
C 8.889 -2.652 0.755
C 9.435 -1.726 -0.199
C 8.413 -1.456 -1.267
C 8.954 -0.610 -2.314
C 7.891 -2.699 -1.959
C 6.558 -2.373 -2.276
C 8.694 -2.745 -3.251
C 7.995 -3.395 -4.288
C 8.817 -1.256 -3.562
C 9.922 -0.647 -4.387
C 10.049 -1.120 -5.699
C 9.278 -2.012 -6.089
C 11.005 -0.594 -6.500
C 11.812 0.363 -6.038
C 12.740 0.851 -6.864
C 11.700 0.855 -4.712
C 10.754 0.334 -3.924
C 5.198 -3.542 -1.607
C 4.222 -3.591 -0.497
C 5.608 -4.766 -2.327
C 4.625 -2.598 -2.760
C 4.379 -1.219 -2.521
C 3.262 -0.715 -3.403
C 3.613 -0.930 -4.796
C 1.921 -1.417 -3.222
C 1.162 -0.840 -2.175
C 1.268 -1.287 -4.593
C 0.653 -0.011 -4.735
C 2.483 -1.356 -5.528
C 3.495 -2.514 -6.319
C 4.298 -3.492 -5.794
C 4.387 -4.565 -6.546
C 3.586 -4.269 -7.639
C 3.261 -4.997 -8.797
C 3.724 -6.222 -9.054
C 2.434 -4.414 -9.691
C 1.971 -3.186 -9.433
C 2.206 -2.403 -8.383
C 3.030 -3.011 -7.512
C -0.048 -1.514 -1.613
C -0.072 -1.726 -0.150
C -0.776 -2.415 -2.532
C -0.652 -0.073 -1.938
C -0.023 1.108 -1.461
C -1.038 2.209 -1.258
C -1.718 2.474 -2.514
C -2.151 1.895 -0.265
C -1.769 2.197 1.066
C -3.319 2.733 -0.772
C -3.205 4.077 -0.315
C -3.093 2.705 -2.288
C -3.478 2.047 -3.671
C -4.681 2.485 -4.191
C -5.317 3.406 -3.710
C -5.117 1.802 -5.300
C -4.485 0.748 -5.927
C -5.002 0.235 -6.917
C -3.243 0.351 -5.327
C -2.796 0.999 -4.248
C -2.613 1.628 2.222
C -1.518 1.137 1.368
C -2.938 0.861 3.444
C -2.382 3.196 2.544
C -1.188 3.643 3.169
C -1.249 5.114 3.553
C -1.724 5.978 2.485
C -2.195 5.518 4.677
C -1.754 5.021 5.934
C -2.024 7.028 4.590
C -0.809 7.451 5.178
C -1.949 7.249 3.079
C -3.153 7.811 2.539
C -4.385 7.214 2.649
C -5.359 7.955 2.197
C -4.738 9.110 1.761
C -5.278 10.284 1.173
C -6.461 10.535 0.915
C -4.291 11.220 0.882
C -2.949 11.049 1.125
C -2.150 12.065 0.773
C -2.433 9.965 1.670
C -3.373 9.041 1.963
