157
out.xyz
O 0.005 0.068 0.000
O -0.843 0.381 0.000
O 0.098 -1.326 0.000
O 1.462 0.607 0.000
O 1.819 1.859 0.000
O 2.813 2.534 0.000
O 3.004 3.817 0.000
O 4.156 1.818 0.000
O 4.470 1.528 0.000
O 5.158 2.822 0.000
O 5.949 3.498 0.000
O 4.255 3.837 0.000
O 3.362 3.886 0.000
O 2.141 3.684 0.000
O 1.989 4.322 0.000
O 3.193 4.987 0.000
O 3.668 5.838 0.000
O 2.953 6.179 0.000
O 4.917 6.333 0.000
O 5.632 5.992 0.000
O 5.295 5.203 0.000
O 4.049 4.726 0.000
O 5.094 0.311 0.000
O 4.989 -0.849 0.000
O 5.807 0.218 0.000
O 5.839 1.516 0.000
O 5.249 2.090 0.000
O 6.320 2.534 0.000
O 6.923 3.759 0.000
O 7.472 1.555 0.000
O 7.224 0.556 0.000
O 8.697 2.420 0.000
O 8.938 2.526 0.000
O 8.287 3.793 0.000
O 8.542 4.959 0.000
O 9.780 5.566 0.000
O 10.349 5.354 0.000
O 10.319 6.365 0.000
O 9.673 6.563 0.000
O 10.243 7.358 0.000
O 8.418 5.957 0.000
O 7.889 5.169 0.000
O 6.323 -0.028 0.000
O 5.155 -0.910 0.000
O 7.703 -0.553 0.000
O 6.316 1.117 0.000
O 5.249 2.052 0.000
O 5.068 2.534 0.000
O 6.304 3.138 0.000
O 4.751 1.448 0.000
O 3.361 1.176 0.000
O 5.326 2.006 0.000
O 4.416 2.922 0.000
O 6.548 2.783 0.000
O 8.274 2.495 0.000
O 8.914 1.603 0.000
O 10.151 1.932 0.000
O 10.342 3.111 0.000
O 11.486 3.942 0.000
O 12.599 3.789 0.000
O 11.249 5.048 0.000
O 10.057 5.319 0.000
O 10.019 6.434 0.000
O 8.986 4.556 0.000
O 9.193 3.476 0.000
O 2.705 0.454 0.000
O 1.771 -0.577 0.000
O 4.073 0.048 0.000
O 2.008 1.328 0.000
O 0.598 1.336 0.000
O 0.000 2.534 0.000
O 0.529 3.764 0.000
O -1.506 2.545 0.000
O -2.264 1.863 0.000
O -1.848 4.036 0.000
O -2.252 4.578 0.000
O -0.523 4.680 0.000
O 0.168 5.551 0.000
O -0.664 6.566 0.000
O -1.830 6.659 0.000
O -0.081 7.472 0.000
O 1.222 7.465 0.000
O 1.601 8.350 0.000
O 2.022 6.380 0.000
O 1.480 5.484 0.000
O -2.668 0.324 0.000
O -2.870 -0.913 0.000
O -3.325 0.460 0.000
O -3.230 1.570 0.000
O -4.623 1.509 0.000
O -5.068 2.534 0.000
O -4.629 3.838 0.000
O -6.578 2.639 0.000
O -7.086 1.814 0.000
O -6.833 4.119 0.000
O -6.926 4.360 0.000
O -5.578 4.814 0.000
O -5.690 5.906 0.000
O -5.849 5.967 0.000
O -6.020 7.185 0.000
O -5.970 7.977 0.000
O -6.084 9.365 0.000
O -6.279 10.234 0.000
O -5.990 9.834 0.000
O -5.794 8.961 0.000
O -5.670 7.637 0.000
O -5.769 7.203 0.000
O -6.301 0.015 0.000
O -5.180 -0.923 0.000
O -7.552 -0.488 0.000
O -6.637 0.789 0.000
O -5.753 1.809 0.000
O -6.320 2.534 0.000
O -7.003 3.750 0.000
O -7.341 1.793 0.000
O -6.743 0.746 0.000
O -7.947 2.940 0.000
O -7.150 3.382 0.000
O -7.972 4.064 0.000
O -9.506 4.230 0.000
O -9.433 4.810 0.000
O -8.380 4.696 0.000
O -10.509 5.477 0.000
O -11.618 5.574 0.000
O -12.652 6.241 0.000
O -11.712 4.993 0.000
O -10.648 4.336 0.000
C -18.240 0.129 0.000
C -16.764 3.616 0.000
C -15.693 3.946 0.000
C -14.738 4.465 0.000
C -15.363 2.732 0.000
C -13.648 2.274 0.000
C -13.586 5.100 0.000
C -11.297 7.642 0.000
C -10.980 6.721 0.000
C -10.236 9.025 0.000
C -12.514 2.804 0.000
C -14.721 4.570 0.000
C -14.390 7.086 0.000
C -13.766 7.528 0.000
C -13.346 9.615 0.000
C -15.691 1.320 0.000
C -19.312 2.425 0.000
C -19.006 2.904 0.000
C -20.552 3.883 0.000
C -18.347 3.314 0.000
C -20.788 -1.061 0.000
C -23.904 0.280 0.000
C -26.395 0.475 0.000
C -27.768 0.530 0.000
C -27.309 1.173 0.000
C -23.966 -2.546 0.000
C -25.038 -0.250 0.000
C -26.688 2.796 0.000
C -25.877 6.132 0.000
C -27.547 6.071 0.000
