63
.\src\test\Trimer1.xyz
C  -3.718 5.238 0.000
C  -0.279 -0.851 0.000
C  -1.337 1.815 0.000
C  7.730 2.235 0.000
C  6.777 5.914 0.000
C  4.012 2.099 0.000
C  5.530 2.625 0.000
C  -5.432 3.725 0.000
C  9.851 4.150 0.000
C  -2.665 2.534 0.000
C  -5.311 3.386 0.000
C  4.485 2.960 0.000
C  1.515 1.245 0.000
C  3.088 3.090 0.000
C  3.863 3.327 0.000
C  6.456 7.125 0.000
C  -4.862 5.559 0.000
C  -4.708 3.104 0.000
C  8.636 4.362 0.000
C  -0.785 -0.431 0.000
C  1.290 1.921 0.000
C  3.814 1.158 0.000
C  4.325 3.277 0.000
C  8.106 5.571 0.000
C  -0.072 -0.099 0.000
C  0.017 -0.042 0.000
C  5.171 -0.678 0.000
C  2.768 1.512 0.000
C  2.615 2.996 0.000
C  0.303 -1.190 0.000
C  7.635 3.506 0.000
C  -3.776 1.911 0.000
C  5.557 3.214 0.000
C  3.859 2.045 0.000
C  2.665 2.534 0.000
C  -3.699 4.212 0.000
C  3.506 2.271 0.000
C  -0.949 1.233 0.000
C  -5.604 4.468 0.000
C  -4.408 0.774 0.000
C  2.648 1.965 0.000
C  2.607 -0.750 0.000
C  2.665 2.534 0.000
C  3.881 1.463 0.000
C  6.503 1.929 0.000
C  7.005 3.128 0.000
C  6.093 2.815 0.000
C  1.301 0.673 0.000
C  -5.067 6.260 0.000
C  5.600 2.922 0.000
C  5.836 5.129 0.000
C  -0.092 -0.629 0.000
C  -2.496 3.845 0.000
C  5.030 2.245 0.000
C  -6.101 2.701 0.000
C  6.223 2.861 0.000
C  6.327 3.949 0.000
C  4.860 2.390 0.000
C  -4.472 4.118 0.000
C  3.788 1.599 0.000
C  -3.884 5.974 0.000
C  5.265 2.532 0.000
C  3.861 0.030 0.000
